Version 4
SHEET 1 5884 1764
WIRE 4704 -208 4704 -224
WIRE 4752 -208 4704 -208
WIRE 4880 -208 4832 -208
WIRE 4304 -176 4288 -176
WIRE 4352 -176 4304 -176
WIRE 4208 -112 4192 -112
WIRE 4304 -112 4304 -176
WIRE 4304 -112 4272 -112
WIRE 4368 -112 4304 -112
WIRE 3760 -96 3584 -96
WIRE 4368 -80 4368 -112
WIRE 4784 -48 4784 -80
WIRE 4832 -48 4832 -64
WIRE 4832 -48 4784 -48
WIRE 4784 -16 4784 -48
WIRE 4704 0 4704 -208
WIRE 4752 0 4704 0
WIRE 4880 16 4880 -208
WIRE 4880 16 4816 16
WIRE 5072 16 4880 16
WIRE 3648 32 3648 16
WIRE 3696 32 3648 32
WIRE 4752 32 4720 32
WIRE 5072 32 5072 16
WIRE 5072 32 5056 32
WIRE 4368 48 4368 0
WIRE 4560 48 4368 48
WIRE 4672 48 4624 48
WIRE 4720 48 4720 32
WIRE 4720 48 4672 48
WIRE 1872 64 1872 16
WIRE 3648 64 3648 32
WIRE 3584 80 3584 -96
WIRE 3616 80 3584 80
WIRE 4368 80 4368 48
WIRE 4784 80 4784 48
WIRE 3760 96 3760 -96
WIRE 3760 96 3680 96
WIRE 3968 96 3968 16
WIRE 3968 96 3760 96
WIRE 4192 96 4192 -112
WIRE 4192 96 3968 96
WIRE 4208 96 4192 96
WIRE 4320 96 4288 96
WIRE 3248 112 3216 112
WIRE 3360 112 3312 112
WIRE 3616 112 3360 112
WIRE 4672 112 4672 48
WIRE 5072 128 5072 96
WIRE 4320 144 4320 96
WIRE 4320 144 4176 144
WIRE 3360 176 3360 112
WIRE 4176 192 4176 144
WIRE 4208 192 4176 192
WIRE 4320 192 4288 192
WIRE 4368 192 4368 160
WIRE 4368 192 4320 192
WIRE 3648 208 3648 128
WIRE 4320 224 4320 192
WIRE 5072 224 5072 208
WIRE 5120 224 5072 224
WIRE 4544 240 4544 224
WIRE 4672 240 4672 192
WIRE 4672 240 4544 240
WIRE 5072 240 5072 224
WIRE 4672 256 4672 240
WIRE 4544 272 4544 240
WIRE 3232 304 3232 288
WIRE 3360 304 3360 256
WIRE 3360 304 3232 304
WIRE 3360 320 3360 304
WIRE 3232 336 3232 304
WIRE 4672 352 4672 320
WIRE 3360 416 3360 384
FLAG 3648 16 VCC
FLAG 1872 144 0
FLAG 1872 16 VCC
FLAG 2224 240 0
FLAG 2224 160 Vin
FLAG 5056 32 Vout3
FLAG 4288 -256 0
FLAG 4320 288 0
FLAG 4352 -256 0
FLAG 3216 112 Vin
FLAG 5072 320 0
FLAG 5120 224 Vout_final
FLAG 3648 208 0
FLAG 4784 -80 VCC
FLAG 3968 16 Vout2
FLAG 4784 80 0
FLAG 4544 144 VCC
FLAG 4544 352 0
FLAG 4704 -368 0
FLAG 3696 -32 0
FLAG 4832 -128 0
FLAG 4672 352 0
FLAG 3232 208 VCC
FLAG 3232 416 0
FLAG 3360 416 0
SYMBOL Opamps\\UniversalOpamp2 3648 96 R0
SYMATTR InstName U2
SYMBOL voltage 1872 48 R0
WINDOW 123 0 0 Left 0
WINDOW 39 0 0 Left 0
SYMATTR InstName V1
SYMATTR Value 9
SYMBOL voltage 2224 144 R0
WINDOW 123 24 124 Left 2
WINDOW 39 24 152 Left 2
SYMATTR Value2 AC 1 0
SYMATTR InstName V2
SYMATTR Value SINE(0 0.2 100)
SYMBOL res 4272 -272 R0
WINDOW 0 -82 40 Left 2
WINDOW 3 -66 76 Left 2
SYMATTR InstName Rhigh
SYMATTR Value 24k
SYMBOL res 4304 176 R90
WINDOW 0 0 56 VBottom 2
WINDOW 3 32 56 VTop 2
SYMATTR InstName Rlow
SYMATTR Value 24k
SYMBOL cap 4304 224 R0
SYMATTR InstName Clow
SYMATTR Value 22n
SYMBOL cap 4272 -128 R90
WINDOW 0 0 32 VBottom 2
WINDOW 3 32 32 VTop 2
SYMATTR InstName Chigh
SYMATTR Value 5.6n
SYMBOL res 4352 -96 R0
SYMATTR InstName RPOT1
SYMATTR Value {Z}
SYMBOL res 4352 64 R0
SYMATTR InstName RPOT2
SYMATTR Value {10k-Z}
SYMBOL res 4336 -272 R0
SYMATTR InstName LDRhigh
SYMATTR Value {X}
SYMBOL res 4304 80 R90
WINDOW 0 0 56 VBottom 2
WINDOW 3 32 56 VTop 2
SYMATTR InstName LDRlow
SYMATTR Value {Y}
SYMBOL cap 5056 32 R0
SYMATTR InstName C1
SYMATTR Value 10µ
SYMBOL res 5056 112 R0
SYMATTR InstName RVol1
SYMATTR Value 5k
SYMBOL res 5056 224 R0
SYMATTR InstName RVol2
SYMATTR Value 5k
SYMBOL Opamps\\UniversalOpamp2 4784 16 R0
SYMATTR InstName U3
SYMBOL res 4528 256 R0
SYMATTR InstName R7
SYMATTR Value 100k
SYMBOL res 4528 128 R0
SYMATTR InstName R8
SYMATTR Value 100k
SYMBOL res 4720 -208 R180
WINDOW 0 36 76 Left 2
WINDOW 3 36 40 Left 2
SYMATTR InstName R1
SYMATTR Value 1k
SYMBOL res 4736 -192 R270
WINDOW 0 32 56 VTop 2
WINDOW 3 0 56 VBottom 2
SYMATTR InstName R2
SYMATTR Value 100k
SYMBOL cap 4688 -368 R0
SYMATTR InstName C2
SYMATTR Value 10µ
SYMBOL cap 3680 -32 R0
SYMATTR InstName C4
SYMATTR Value 1µ
SYMBOL cap 4816 -128 R0
SYMATTR InstName C5
SYMATTR Value 1µ
SYMBOL cap 4656 256 R0
SYMATTR InstName C3
SYMATTR Value 2µ
SYMBOL res 4656 96 R0
SYMATTR InstName R5
SYMATTR Value 200k
SYMBOL cap 4624 32 R90
WINDOW 0 0 32 VBottom 2
WINDOW 3 32 32 VTop 2
SYMATTR InstName C6
SYMATTR Value 100n
SYMBOL res 3216 320 R0
SYMATTR InstName R3
SYMATTR Value 100k
SYMBOL res 3216 192 R0
SYMATTR InstName R4
SYMATTR Value 100k
SYMBOL cap 3344 320 R0
SYMATTR InstName C7
SYMATTR Value 2µ
SYMBOL res 3344 160 R0
SYMATTR InstName R6
SYMATTR Value 200k
SYMBOL cap 3312 96 R90
WINDOW 0 0 32 VBottom 2
WINDOW 3 32 32 VTop 2
SYMATTR InstName C8
SYMATTR Value 100n
TEXT 3920 728 Left 2 !*.step param X 3k 10k 1k
TEXT 4024 624 Left 2 !.ac dec 10 1 1G
TEXT 4712 -432 Left 2 ;f pole= 1 / (2*pi*R1*C2)
TEXT 4664 -504 Left 2 ;Vout / Vin = ( 1 + jw(R1+R2)*C2 ) / ( 1 + jw*R1*C2 )
TEXT 4272 728 Left 2 !.step param Y 3k 10k 1k
TEXT 3936 696 Left 2 !.param X  3k
TEXT 4280 688 Left 2 !*.param Y=3k
TEXT 4632 680 Left 2 !.param Z=5k
TEXT 4640 728 Left 2 !*.step param Z 1k 9.9k 1k
TEXT 1984 976 Left 2 ;https://www.digikey.com/products/en/sensors-transducers/optical-sensors-photo-detectors-cds-cells/540?k=light+dependent+resistor&k=&pkeyword=light+dependent+resistor&sv=0&pv732=4&sf=0&quantity=&ColumnSort=0&page=1&stock=1&datasheet=1&pageSize=25
TEXT 4448 624 Left 2 !;tran 0 50ms 0 1ms
TEXT 4288 624 Left 2 !.op
TEXT 4616 392 Left 2 ;R7 and C3 make a low-pass filter.
TEXT 1992 920 Left 2 ;References
TEXT 2000 1032 Left 2 ;https://www.renesas.com/us/en/document/apn/r13an0003-how-bias-op-amps-correctly
TEXT 3208 504 Left 2 ;R6 and C7 make a low-pass filter.
TEXT 4184 472 Left 2 ;Simulation Controls
TEXT 4272 768 Left 2 ;Low notch filter frequency
TEXT 3888 768 Left 2 ;high notch filter frequency
TEXT 4648 768 Left 2 ;Trend towards low or high tone
